
#######################################################################
#
#                 Cambridge Crystallographic Data Centre
#                                CCDC 
#
#######################################################################
#
# If this CIF has been generated from an entry in the Cambridge 
# Structural Database, then it will include bibliographic, chemical, 
# crystal, experimental, refinement or atomic coordinate data resulting 
# from the CCDC's data processing and validation procedures.
#
#######################################################################

data_DOTSOV42
_chemical_name_common            HKUST-1
_chemical_formula_moiety         '(C36 H12 Cu6 O24)n'
_chemical_name_systematic        
catena-(tetrakis(\m~6~-1,3,5-Benzenetricarboxylato)-hexa-copper)
_symmetry_cell_setting           cubic
_symmetry_space_group_name_H-M   'F m -3 m'
_symmetry_Int_Tables_number      225
_space_group_name_Hall           '-F 4 2 3'
loop_
_symmetry_equiv_pos_as_xyz
x,y,z
z,x,y
y,z,x
-z,x,-y
-y,-z,x
y,-z,-x
-x,y,-z
-z,-x,y
x,-y,-z
y,x,-z
-z,y,x
x,-z,y
-x,-y,z
z,-x,-y
-y,z,-x
-y,-x,-z
-z,-y,-x
-x,-z,-y
z,-y,x
x,z,-y
-x,z,y
y,-x,z
z,y,-x
-y,x,z
x,1/2+y,1/2+z
z,1/2+x,1/2+y
y,1/2+z,1/2+x
-z,1/2+x,1/2-y
-y,1/2-z,1/2+x
y,1/2-z,1/2-x
-x,1/2+y,1/2-z
-z,1/2-x,1/2+y
x,1/2-y,1/2-z
y,1/2+x,1/2-z
-z,1/2+y,1/2+x
x,1/2-z,1/2+y
-x,1/2-y,1/2+z
z,1/2-x,1/2-y
-y,1/2+z,1/2-x
-y,1/2-x,1/2-z
-z,1/2-y,1/2-x
-x,1/2-z,1/2-y
z,1/2-y,1/2+x
x,1/2+z,1/2-y
-x,1/2+z,1/2+y
y,1/2-x,1/2+z
z,1/2+y,1/2-x
-y,1/2+x,1/2+z
1/2+x,y,1/2+z
1/2+z,x,1/2+y
1/2+y,z,1/2+x
1/2-z,x,1/2-y
1/2-y,-z,1/2+x
1/2+y,-z,1/2-x
1/2-x,y,1/2-z
1/2-z,-x,1/2+y
1/2+x,-y,1/2-z
1/2+y,x,1/2-z
1/2-z,y,1/2+x
1/2+x,-z,1/2+y
1/2-x,-y,1/2+z
1/2+z,-x,1/2-y
1/2-y,z,1/2-x
1/2-y,-x,1/2-z
1/2-z,-y,1/2-x
1/2-x,-z,1/2-y
1/2+z,-y,1/2+x
1/2+x,z,1/2-y
1/2-x,z,1/2+y
1/2+y,-x,1/2+z
1/2+z,y,1/2-x
1/2-y,x,1/2+z
1/2+x,1/2+y,z
1/2+z,1/2+x,y
1/2+y,1/2+z,x
1/2-z,1/2+x,-y
1/2-y,1/2-z,x
1/2+y,1/2-z,-x
1/2-x,1/2+y,-z
1/2-z,1/2-x,y
1/2+x,1/2-y,-z
1/2+y,1/2+x,-z
1/2-z,1/2+y,x
1/2+x,1/2-z,y
1/2-x,1/2-y,z
1/2+z,1/2-x,-y
1/2-y,1/2+z,-x
1/2-y,1/2-x,-z
1/2-z,1/2-y,-x
1/2-x,1/2-z,-y
1/2+z,1/2-y,x
1/2+x,1/2+z,-y
1/2-x,1/2+z,y
1/2+y,1/2-x,z
1/2+z,1/2+y,-x
1/2-y,1/2+x,z
-x,-y,-z
-z,-x,-y
-y,-z,-x
z,-x,y
y,z,-x
-y,z,x
x,-y,z
z,x,-y
-x,y,z
-y,-x,z
z,-y,-x
-x,z,-y
x,y,-z
-z,x,y
y,-z,x
y,x,z
z,y,x
x,z,y
-z,y,-x
-x,-z,y
x,-z,-y
-y,x,-z
-z,-y,x
y,-x,-z
-x,1/2-y,1/2-z
-z,1/2-x,1/2-y
-y,1/2-z,1/2-x
z,1/2-x,1/2+y
y,1/2+z,1/2-x
-y,1/2+z,1/2+x
x,1/2-y,1/2+z
z,1/2+x,1/2-y
-x,1/2+y,1/2+z
-y,1/2-x,1/2+z
z,1/2-y,1/2-x
-x,1/2+z,1/2-y
x,1/2+y,1/2-z
-z,1/2+x,1/2+y
y,1/2-z,1/2+x
y,1/2+x,1/2+z
z,1/2+y,1/2+x
x,1/2+z,1/2+y
-z,1/2+y,1/2-x
-x,1/2-z,1/2+y
x,1/2-z,1/2-y
-y,1/2+x,1/2-z
-z,1/2-y,1/2+x
y,1/2-x,1/2-z
1/2-x,-y,1/2-z
1/2-z,-x,1/2-y
1/2-y,-z,1/2-x
1/2+z,-x,1/2+y
1/2+y,z,1/2-x
1/2-y,z,1/2+x
1/2+x,-y,1/2+z
1/2+z,x,1/2-y
1/2-x,y,1/2+z
1/2-y,-x,1/2+z
1/2+z,-y,1/2-x
1/2-x,z,1/2-y
1/2+x,y,1/2-z
1/2-z,x,1/2+y
1/2+y,-z,1/2+x
1/2+y,x,1/2+z
1/2+z,y,1/2+x
1/2+x,z,1/2+y
1/2-z,y,1/2-x
1/2-x,-z,1/2+y
1/2+x,-z,1/2-y
1/2-y,x,1/2-z
1/2-z,-y,1/2+x
1/2+y,-x,1/2-z
1/2-x,1/2-y,-z
1/2-z,1/2-x,-y
1/2-y,1/2-z,-x
1/2+z,1/2-x,y
1/2+y,1/2+z,-x
1/2-y,1/2+z,x
1/2+x,1/2-y,z
1/2+z,1/2+x,-y
1/2-x,1/2+y,z
1/2-y,1/2-x,z
1/2+z,1/2-y,-x
1/2-x,1/2+z,-y
1/2+x,1/2+y,-z
1/2-z,1/2+x,y
1/2+y,1/2-z,x
1/2+y,1/2+x,z
1/2+z,1/2+y,x
1/2+x,1/2+z,y
1/2-z,1/2+y,-x
1/2-x,1/2-z,y
1/2+x,1/2-z,-y
1/2-y,1/2+x,-z
1/2-z,1/2-y,x
1/2+y,1/2-x,-z
_cell_length_a                   26.28791
_cell_length_b                   26.28791
_cell_length_c                   26.28791
_cell_angle_alpha                90
_cell_angle_beta                 90
_cell_angle_gamma                90
_cell_volume                     18166.4
_cell_formula_units_Z            8
loop_
_atom_site_label
_atom_site_type_symbol
_atom_site_fract_x
_atom_site_fract_y
_atom_site_fract_z
Cu1 Cu 0.28322 0.28322 0.00000
O1 O 0.31698 0.24421 -0.05251
C1 C 0.32187 0.17813 -0.11334
C2 C 0.29644 0.20356 -0.06939
C3 C 0.36497 0.20129 -0.13503
H1 H 0.38019 0.23407 -0.11982
Cu2 Cu 0.21678 0.21678 0.00000
Cu3 Cu 0.50000 0.28322 -0.21678
Cu4 Cu 0.50000 0.21678 -0.28322
Cu5 Cu 0.28322 0.00000 -0.28322
Cu6 Cu 0.21678 -0.00000 -0.21678
Cu7 Cu 0.50000 0.28322 0.21678
Cu8 Cu 0.50000 0.21678 0.28322
Cu9 Cu 0.28322 0.00000 0.28322
Cu10 Cu 0.21678 0.00000 0.21678
Cu11 Cu 0.28322 0.50000 -0.21678
Cu12 Cu 0.21678 0.50000 -0.28322
Cu13 Cu 0.00000 0.28322 -0.28322
Cu14 Cu 0.00000 0.21678 -0.21678
Cu15 Cu 0.28322 0.50000 0.21678
Cu16 Cu 0.21678 0.50000 0.28322
Cu17 Cu 0.00000 0.28322 0.28322
Cu18 Cu 0.00000 0.21678 0.21678
O2 O 0.25579 0.18302 -0.05251
O3 O 0.44749 0.24421 -0.18302
O4 O 0.44749 0.18302 -0.24421
O5 O 0.31698 0.05251 -0.24421
O6 O 0.25579 0.05251 -0.18302
O7 O 0.31698 0.24421 0.05251
O8 O 0.25579 0.18302 0.05251
O9 O 0.44749 0.24421 0.18302
O10 O 0.44749 0.18302 0.24421
O11 O 0.31698 0.05251 0.24421
O12 O 0.25579 0.05251 0.18302
O13 O 0.24421 0.31698 -0.05251
O14 O 0.18302 0.25579 -0.05251
O15 O 0.24421 0.44749 -0.18302
O16 O 0.18302 0.44749 -0.24421
O17 O 0.05251 0.31698 -0.24421
O18 O 0.05251 0.25579 -0.18302
O19 O 0.24421 0.31698 0.05251
O20 O 0.18302 0.25579 0.05251
O21 O 0.24421 0.44749 0.18302
O22 O 0.18302 0.44749 0.24421
O23 O 0.05251 0.31698 0.24421
O24 O 0.05251 0.25579 0.18302
O25 O 0.55251 0.24421 -0.18302
O26 O 0.44749 0.31698 -0.25579
O27 O 0.55251 0.31698 -0.25579
O28 O 0.55251 0.18302 -0.24421
O29 O 0.44749 0.25579 -0.31698
O30 O 0.55251 0.25579 -0.31698
O31 O 0.31698 -0.05251 -0.24421
O32 O 0.24421 0.05251 -0.31698
O33 O 0.24421 -0.05251 -0.31698
O34 O 0.25579 -0.05251 -0.18302
O35 O 0.18302 0.05251 -0.25579
O36 O 0.18302 -0.05251 -0.25579
C4 C 0.38666 0.17813 -0.17813
C5 C 0.32187 0.11334 -0.17813
C6 C 0.32187 0.17813 0.11334
C7 C 0.38666 0.17813 0.17813
C8 C 0.32187 0.11334 0.17813
C9 C 0.17813 0.32187 -0.11334
C10 C 0.17813 0.38666 -0.17813
C11 C 0.11334 0.32187 -0.17813
C12 C 0.17813 0.32187 0.11334
C13 C 0.17813 0.38666 0.17813
C14 C 0.11334 0.32187 0.17813
C15 C 0.43061 0.20356 -0.20356
C16 C 0.29644 0.06939 -0.20356
C17 C 0.29644 0.20356 0.06939
C18 C 0.43061 0.20356 0.20356
C19 C 0.29644 0.06939 0.20356
C20 C 0.20356 0.29644 -0.06939
C21 C 0.20356 0.43061 -0.20356
C22 C 0.06939 0.29644 -0.20356
C23 C 0.20356 0.29644 0.06939
C24 C 0.20356 0.43061 0.20356
C25 C 0.06939 0.29644 0.20356
C26 C 0.36497 0.13503 -0.20129
C27 C 0.29871 0.13503 -0.13503
C28 C 0.36497 0.20129 0.13503
C29 C 0.36497 0.13503 0.20129
C30 C 0.29871 0.13503 0.13503
C31 C 0.20129 0.36497 -0.13503
C32 C 0.13503 0.36497 -0.20129
C33 C 0.13503 0.29871 -0.13503
C34 C 0.20129 0.36497 0.13503
C35 C 0.13503 0.36497 0.20129
C36 C 0.13503 0.29871 0.13503
H2 H 0.26593 0.11981 -0.11982
H3 H 0.38019 0.11982 -0.23407
H4 H 0.38019 0.23407 0.11982
H5 H 0.26593 0.11981 0.11982
H6 H 0.38019 0.11982 0.23407
H7 H 0.23407 0.38019 -0.11982
H8 H 0.11981 0.26593 -0.11982
H9 H 0.11982 0.38019 -0.23407
H10 H 0.23407 0.38019 0.11982
H11 H 0.11981 0.26593 0.11982
H12 H 0.11982 0.38019 0.23407
loop_
_geom_bond_atom_site_label_1
_geom_bond_atom_site_label_2
_geom_bond_site_symmetry_1
_geom_bond_site_symmetry_2
Cu1 O1 1_555 1_555
O1 C2 1_555 1_555
C1 C2 1_555 1_555
C2 O2 1_555 1_555
C3 C1 1_555 1_555
H1 C3 1_555 1_555
Cu2 Cu1 1_555 1_555
Cu3 Cu4 1_555 1_555
Cu4 O4 1_555 1_555
Cu5 Cu6 1_555 1_555
Cu6 O6 1_555 1_555
Cu7 Cu8 1_555 1_555
Cu8 O10 1_555 1_555
Cu9 Cu10 1_555 1_555
Cu10 O12 1_555 1_555
Cu11 Cu12 1_555 1_555
Cu12 O16 1_555 1_555
Cu13 Cu14 1_555 1_555
Cu14 O18 1_555 1_555
Cu15 Cu16 1_555 1_555
Cu16 O22 1_555 1_555
Cu17 Cu18 1_555 1_555
Cu18 O24 1_555 1_555
O2 Cu2 1_555 1_555
O3 Cu3 1_555 1_555
O4 C15 1_555 1_555
O5 Cu5 1_555 1_555
O6 C16 1_555 1_555
O7 Cu1 1_555 1_555
O8 Cu2 1_555 1_555
O9 Cu7 1_555 1_555
O10 C18 1_555 1_555
O11 Cu9 1_555 1_555
O12 C19 1_555 1_555
O13 Cu1 1_555 1_555
O14 Cu2 1_555 1_555
O15 Cu11 1_555 1_555
O16 C21 1_555 1_555
O17 Cu13 1_555 1_555
O18 C22 1_555 1_555
O19 Cu1 1_555 1_555
O20 Cu2 1_555 1_555
O21 Cu15 1_555 1_555
O22 C24 1_555 1_555
O23 Cu17 1_555 1_555
O24 C25 1_555 1_555
O25 Cu3 1_555 1_555
O26 Cu3 1_555 1_555
O27 Cu3 1_555 1_555
O28 Cu4 1_555 1_555
O29 Cu4 1_555 1_555
O30 Cu4 1_555 1_555
O31 Cu5 1_555 1_555
O32 Cu5 1_555 1_555
O33 Cu5 1_555 1_555
O34 Cu6 1_555 1_555
O35 Cu6 1_555 1_555
O36 Cu6 1_555 1_555
C4 C3 1_555 1_555
C5 C16 1_555 1_555
C6 C17 1_555 1_555
C7 C18 1_555 1_555
C8 C19 1_555 1_555
C9 C20 1_555 1_555
C10 C21 1_555 1_555
C11 C22 1_555 1_555
C12 C23 1_555 1_555
C13 C24 1_555 1_555
C14 C25 1_555 1_555
C15 O3 1_555 1_555
C16 O5 1_555 1_555
C17 O7 1_555 1_555
C18 O9 1_555 1_555
C19 O11 1_555 1_555
C20 O13 1_555 1_555
C21 O15 1_555 1_555
C22 O17 1_555 1_555
C23 O19 1_555 1_555
C24 O21 1_555 1_555
C25 O23 1_555 1_555
C26 C4 1_555 1_555
C27 C1 1_555 1_555
C28 C6 1_555 1_555
C29 C7 1_555 1_555
C30 C6 1_555 1_555
C31 C9 1_555 1_555
C32 C10 1_555 1_555
C33 C9 1_555 1_555
C34 C12 1_555 1_555
C35 C13 1_555 1_555
C36 C12 1_555 1_555
H2 C27 1_555 1_555
H3 C26 1_555 1_555
H4 C28 1_555 1_555
H5 C30 1_555 1_555
H6 C29 1_555 1_555
H7 C31 1_555 1_555
H8 C33 1_555 1_555
H9 C32 1_555 1_555
H10 C34 1_555 1_555
H11 C36 1_555 1_555
H12 C35 1_555 1_555
O8 C17 1_555 1_555
O14 C20 1_555 1_555
O20 C23 1_555 1_555
C4 C15 1_555 1_555
C5 C26 1_555 1_555
C5 C27 1_555 1_555
C7 C28 1_555 1_555
C8 C29 1_555 1_555
C8 C30 1_555 1_555
C10 C31 1_555 1_555
C11 C32 1_555 1_555
C11 C33 1_555 1_555
C13 C34 1_555 1_555
C14 C35 1_555 1_555
C14 C36 1_555 1_555

#END
